<?xml version="1.0" encoding="UTF-8"?>

<!-- generated on 10/04/18 16:05:29 by Eclipse SUMO netedit Version 1.0.1
<configuration xmlns:xsi="http://www.w3.org/2001/XMLSchema-instance" xsi:noNamespaceSchemaLocation="http://sumo.dlr.de/xsd/netconvertConfiguration.xsd">

    <input>
        <sumo-net-file value="C:\Program%20Files%20(x86)\Eclipse\Sumo\Projects\HigwayOvertakingLaneChanges\Data\StraightRoad.net.xml"/>
    </input>

    <output>
        <output-file value="C:\Program%20Files%20(x86)\Eclipse\Sumo\Projects\HigwayOvertakingLaneChanges\Data\StraightRoad.net.xml"/>
    </output>

    <processing>
        <offset.disable-normalization value="true"/>
        <lefthand value="false"/>
    </processing>

    <junctions>
        <no-internal-links value="true"/>
        <no-turnarounds value="true"/>
        <junctions.corner-detail value="0"/>
        <junctions.limit-turn-speed value="-1"/>
        <rectangular-lane-cut value="false"/>
    </junctions>

    <pedestrian>
        <walkingareas value="false"/>
    </pedestrian>

</configuration>
-->

<net version="1.0" xmlns:xsi="http://www.w3.org/2001/XMLSchema-instance" xsi:noNamespaceSchemaLocation="http://sumo.dlr.de/xsd/net_file.xsd">

    <location netOffset="0.00,0.00" convBoundary="0.00,0.00,5000.00,0.00" origBoundary="-10000000000.00,-10000000000.00,10000000000.00,10000000000.00" projParameter="!"/>

    <edge id="Lane" from="gneJ0" to="gneJ1" priority="1" length="40000.00">
        <lane id="Lane_0" index="0" speed="22.22" length="40000.00" shape="0.00,-11.20 5000.00,-11.20"/>
        <lane id="Lane_1" index="1" speed="22.22" length="40000.00" shape="0.00,-8.00 5000.00,-8.00"/>
        <lane id="Lane_2" index="2" speed="22.22" length="40000.00" shape="0.00,-4.80 5000.00,-4.80"/>
        <lane id="Lane_3" index="3" speed="22.22" length="40000.00" shape="0.00,-1.60 5000.00,-1.60"/>
    </edge>

    <junction id="gneJ0" type="dead_end" x="0.00" y="0.00" incLanes="" intLanes="" shape="0.00,0.00 0.00,-12.80"/>
    <junction id="gneJ1" type="dead_end" x="5000.00" y="0.00" incLanes="Lane_0 Lane_1 Lane_2 Lane_3" intLanes="" shape="5000.00,-12.80 5000.00,0.00"/>

</net>
